*HEADING
jetsuite2 turbine disc, axisymmetric (X = radius, Y = axis), SI units
*NODE
1, 7.5000000e-03, 1.8073542e-01, 0.0
2, 8.0000000e-03, 1.8073542e-01, 0.0
3, 8.0000000e-03, 1.8123542e-01, 0.0
4, 7.5000000e-03, 1.8123542e-01, 0.0
5, 8.5000000e-03, 1.8073542e-01, 0.0
6, 8.5000000e-03, 1.8123542e-01, 0.0
7, 9.0000000e-03, 1.8073542e-01, 0.0
8, 9.0000000e-03, 1.8123542e-01, 0.0
9, 9.5000000e-03, 1.8073542e-01, 0.0
10, 9.5000000e-03, 1.8123542e-01, 0.0
11, 1.0000000e-02, 1.8073542e-01, 0.0
12, 1.0000000e-02, 1.8123542e-01, 0.0
13, 1.0500000e-02, 1.8073542e-01, 0.0
14, 1.0500000e-02, 1.8123542e-01, 0.0
15, 1.1000000e-02, 1.8073542e-01, 0.0
16, 1.1000000e-02, 1.8123542e-01, 0.0
17, 1.1500000e-02, 1.8073542e-01, 0.0
18, 1.1500000e-02, 1.8123542e-01, 0.0
19, 1.2000000e-02, 1.8073542e-01, 0.0
20, 1.2000000e-02, 1.8123542e-01, 0.0
** ... 2513 like lines cut
*ELEMENT, TYPE=CAX4, ELSET=DISC
1, 1, 2, 3, 4
2, 2, 5, 6, 3
3, 5, 7, 8, 6
4, 7, 9, 10, 8
5, 9, 11, 12, 10
6, 11, 13, 14, 12
7, 13, 15, 16, 14
8, 15, 17, 18, 16
9, 17, 19, 20, 18
10, 19, 21, 22, 20
11, 21, 23, 24, 22
12, 23, 25, 26, 24
13, 4, 3, 27, 28
14, 3, 6, 29, 27
15, 6, 8, 30, 29
16, 8, 10, 31, 30
17, 10, 12, 32, 31
18, 12, 14, 33, 32
19, 14, 16, 34, 33
20, 16, 18, 35, 34
** ... 2359 like lines cut
*NSET, NSET=STUBREAR
1
*NSET, NSET=NALL, GENERATE
1, 2533
*MATERIAL, NAME=DISC
*ELASTIC
1.970000e+11, 0.3000
*DENSITY
8000.0000
*EXPANSION, ZERO=300.0
1.100000e-05
*SOLID SECTION, ELSET=DISC, MATERIAL=DISC
*INITIAL CONDITIONS, TYPE=TEMPERATURE
NALL, 300.0
*BOUNDARY
STUBREAR, 2, 2, 0.0
** ---- step 1: centrifugal at MCS
*STEP
*STATIC
*DLOAD
DISC, CENTRIF, 6.354946e+07, 0., 0., 0., 0., 1., 0.
288, P2, -1.533522e+08
310, P2, -1.533522e+08
334, P2, -1.533522e+08
359, P2, -1.533522e+08
386, P2, -1.533522e+08
414, P2, -1.533522e+08
443, P2, -1.533522e+08
502, P2, -1.533522e+08
561, P2, -1.533522e+08
620, P2, -1.533522e+08
679, P2, -1.533522e+08
738, P2, -1.533522e+08
797, P2, -1.533522e+08
856, P2, -1.533522e+08
915, P2, -1.533522e+08
974, P2, -1.533522e+08
1033, P2, -1.533522e+08
1092, P2, -1.533522e+08
1151, P2, -1.533522e+08
1210, P2, -1.533522e+08
** ... 19 like lines cut
*TEMPERATURE
NALL, 300.0
*NODE FILE
U
*EL FILE
S
*EL PRINT, ELSET=DISC
S
*END STEP
** ---- step 2: MCS + thermal field
*STEP
*STATIC
*DLOAD
DISC, CENTRIF, 6.354946e+07, 0., 0., 0., 0., 1., 0.
288, P2, -1.533522e+08
310, P2, -1.533522e+08
334, P2, -1.533522e+08
359, P2, -1.533522e+08
386, P2, -1.533522e+08
414, P2, -1.533522e+08
443, P2, -1.533522e+08
502, P2, -1.533522e+08
561, P2, -1.533522e+08
620, P2, -1.533522e+08
679, P2, -1.533522e+08
738, P2, -1.533522e+08
797, P2, -1.533522e+08
856, P2, -1.533522e+08
915, P2, -1.533522e+08
974, P2, -1.533522e+08
1033, P2, -1.533522e+08
1092, P2, -1.533522e+08
1151, P2, -1.533522e+08
1210, P2, -1.533522e+08
** ... 19 like lines cut
*TEMPERATURE
1, 544.893
2, 544.990
3, 544.990
4, 544.893
5, 545.283
6, 545.283
7, 545.770
8, 545.770
9, 546.452
10, 546.452
11, 547.329
12, 547.329
13, 548.401
14, 548.401
15, 549.668
16, 549.668
17, 551.130
18, 551.130
19, 552.787
20, 552.787
** ... 2513 like lines cut
*NODE FILE
U
*EL FILE
S
*EL PRINT, ELSET=DISC
S
*END STEP
** ---- step 3: idle + thermal field
*STEP
*STATIC
*DLOAD
DISC, CENTRIF, 1.441031e+07, 0., 0., 0., 0., 1., 0.
288, P2, -3.477375e+07
310, P2, -3.477375e+07
334, P2, -3.477375e+07
359, P2, -3.477375e+07
386, P2, -3.477375e+07
414, P2, -3.477375e+07
443, P2, -3.477375e+07
502, P2, -3.477375e+07
561, P2, -3.477375e+07
620, P2, -3.477375e+07
679, P2, -3.477375e+07
738, P2, -3.477375e+07
797, P2, -3.477375e+07
856, P2, -3.477375e+07
915, P2, -3.477375e+07
974, P2, -3.477375e+07
1033, P2, -3.477375e+07
1092, P2, -3.477375e+07
1151, P2, -3.477375e+07
1210, P2, -3.477375e+07
** ... 19 like lines cut
*TEMPERATURE
1, 544.893
2, 544.990
3, 544.990
4, 544.893
5, 545.283
6, 545.283
7, 545.770
8, 545.770
9, 546.452
10, 546.452
11, 547.329
12, 547.329
13, 548.401
14, 548.401
15, 549.668
16, 549.668
17, 551.130
18, 551.130
19, 552.787
20, 552.787
** ... 2513 like lines cut
*NODE FILE
U
*EL FILE
S
*EL PRINT, ELSET=DISC
S
*END STEP
