*HEADING
jetsuite2 turbine disc, axisymmetric (X = radius, Y = axis), SI units
*NODE
1, 7.5000000e-03, 0.0000000e+00, 0.0
2, 8.0000000e-03, 0.0000000e+00, 0.0
3, 8.0000000e-03, 5.0000000e-04, 0.0
4, 7.5000000e-03, 5.0000000e-04, 0.0
5, 8.5000000e-03, 0.0000000e+00, 0.0
6, 8.5000000e-03, 5.0000000e-04, 0.0
7, 9.0000000e-03, 0.0000000e+00, 0.0
8, 9.0000000e-03, 5.0000000e-04, 0.0
9, 9.5000000e-03, 0.0000000e+00, 0.0
10, 9.5000000e-03, 5.0000000e-04, 0.0
11, 1.0000000e-02, 0.0000000e+00, 0.0
12, 1.0000000e-02, 5.0000000e-04, 0.0
13, 1.0500000e-02, 0.0000000e+00, 0.0
14, 1.0500000e-02, 5.0000000e-04, 0.0
15, 1.1000000e-02, 0.0000000e+00, 0.0
16, 1.1000000e-02, 5.0000000e-04, 0.0
17, 1.1030671e-02, 0.0000000e+00, 0.0
18, 1.1030671e-02, 5.0000000e-04, 0.0
19, 8.0000000e-03, 1.0000000e-03, 0.0
20, 7.5000000e-03, 1.0000000e-03, 0.0
** ... 8184 like lines cut
*ELEMENT, TYPE=CAX4, ELSET=DISC
1, 1, 2, 3, 4
2, 2, 5, 6, 3
3, 5, 7, 8, 6
4, 7, 9, 10, 8
5, 9, 11, 12, 10
6, 11, 13, 14, 12
7, 13, 15, 16, 14
8, 15, 17, 18, 16
9, 4, 3, 19, 20
10, 3, 6, 21, 19
11, 6, 8, 22, 21
12, 8, 10, 23, 22
13, 10, 12, 24, 23
14, 12, 14, 25, 24
15, 14, 16, 26, 25
16, 16, 18, 27, 26
17, 18, 28, 29, 27
18, 20, 19, 30, 31
19, 19, 21, 32, 30
20, 21, 22, 33, 32
** ... 7901 like lines cut
*NSET, NSET=STUBREAR
1
*NSET, NSET=NALL, GENERATE
1, 8204
*MATERIAL, NAME=DISC
*ELASTIC
1.138000e+11, 0.3420
*DENSITY
4430.0000
*EXPANSION, ZERO=300.0
9.200000e-06
*SOLID SECTION, ELSET=DISC, MATERIAL=DISC
*INITIAL CONDITIONS, TYPE=TEMPERATURE
NALL, 300.0
*BOUNDARY
STUBREAR, 2, 2, 0.0
** ---- step 1: centrifugal at MCS
*STEP
*STATIC
*DLOAD
DISC, CENTRIF, 6.354946e+07, 0., 0., 0., 0., 1., 0.
8, P2, -3.791224e+07
17, P2, -3.791224e+07
27, P2, -3.791224e+07
37, P2, -3.791224e+07
48, P2, -3.791224e+07
59, P2, -3.791224e+07
71, P2, -3.791224e+07
83, P2, -3.791224e+07
96, P2, -3.791224e+07
110, P2, -3.791224e+07
124, P2, -3.791224e+07
139, P2, -3.791224e+07
155, P2, -3.791224e+07
171, P2, -3.791224e+07
187, P2, -3.791224e+07
203, P2, -3.791224e+07
219, P2, -3.791224e+07
236, P2, -3.791224e+07
253, P2, -3.791224e+07
270, P2, -3.791224e+07
** ... 83 like lines cut
*TEMPERATURE
NALL, 300.0
*NODE FILE
U
*EL FILE
S
*EL PRINT, ELSET=DISC
S
*END STEP
** ---- step 2: MCS + thermal field
*STEP
*STATIC
*DLOAD
DISC, CENTRIF, 6.354946e+07, 0., 0., 0., 0., 1., 0.
8, P2, -3.791224e+07
17, P2, -3.791224e+07
27, P2, -3.791224e+07
37, P2, -3.791224e+07
48, P2, -3.791224e+07
59, P2, -3.791224e+07
71, P2, -3.791224e+07
83, P2, -3.791224e+07
96, P2, -3.791224e+07
110, P2, -3.791224e+07
124, P2, -3.791224e+07
139, P2, -3.791224e+07
155, P2, -3.791224e+07
171, P2, -3.791224e+07
187, P2, -3.791224e+07
203, P2, -3.791224e+07
219, P2, -3.791224e+07
236, P2, -3.791224e+07
253, P2, -3.791224e+07
270, P2, -3.791224e+07
** ... 83 like lines cut
*TEMPERATURE
1, 308.150
2, 308.150
3, 309.968
4, 309.968
5, 308.150
6, 309.968
7, 308.150
8, 309.968
9, 308.150
10, 309.968
11, 308.150
12, 309.968
13, 308.150
14, 309.968
15, 308.150
16, 309.968
17, 308.150
18, 309.968
19, 311.787
20, 311.787
** ... 8184 like lines cut
*NODE FILE
U
*EL FILE
S
*EL PRINT, ELSET=DISC
S
*END STEP
** ---- step 3: idle + thermal field
*STEP
*STATIC
*DLOAD
DISC, CENTRIF, 1.441031e+07, 0., 0., 0., 0., 1., 0.
8, P2, -8.596880e+06
17, P2, -8.596880e+06
27, P2, -8.596880e+06
37, P2, -8.596880e+06
48, P2, -8.596880e+06
59, P2, -8.596880e+06
71, P2, -8.596880e+06
83, P2, -8.596880e+06
96, P2, -8.596880e+06
110, P2, -8.596880e+06
124, P2, -8.596880e+06
139, P2, -8.596880e+06
155, P2, -8.596880e+06
171, P2, -8.596880e+06
187, P2, -8.596880e+06
203, P2, -8.596880e+06
219, P2, -8.596880e+06
236, P2, -8.596880e+06
253, P2, -8.596880e+06
270, P2, -8.596880e+06
** ... 83 like lines cut
*TEMPERATURE
1, 308.150
2, 308.150
3, 309.968
4, 309.968
5, 308.150
6, 309.968
7, 308.150
8, 309.968
9, 308.150
10, 309.968
11, 308.150
12, 309.968
13, 308.150
14, 309.968
15, 308.150
16, 309.968
17, 308.150
18, 309.968
19, 311.787
20, 311.787
** ... 8184 like lines cut
*NODE FILE
U
*EL FILE
S
*EL PRINT, ELSET=DISC
S
*END STEP
