*HEADING
jetsuite2 turbine disc, axisymmetric (X = radius, Y = axis), SI units
*NODE
1, 5.0000000e-04, 1.8073542e-01, 0.0
2, 1.0000000e-03, 1.8073542e-01, 0.0
3, 1.0000000e-03, 1.8123542e-01, 0.0
4, 5.0000000e-04, 1.8123542e-01, 0.0
5, 1.5000000e-03, 1.8073542e-01, 0.0
6, 1.5000000e-03, 1.8123542e-01, 0.0
7, 2.0000000e-03, 1.8073542e-01, 0.0
8, 2.0000000e-03, 1.8123542e-01, 0.0
9, 2.5000000e-03, 1.8073542e-01, 0.0
10, 2.5000000e-03, 1.8123542e-01, 0.0
11, 3.0000000e-03, 1.8073542e-01, 0.0
12, 3.0000000e-03, 1.8123542e-01, 0.0
13, 3.5000000e-03, 1.8073542e-01, 0.0
14, 3.5000000e-03, 1.8123542e-01, 0.0
15, 4.0000000e-03, 1.8073542e-01, 0.0
16, 4.0000000e-03, 1.8123542e-01, 0.0
17, 4.5000000e-03, 1.8073542e-01, 0.0
18, 4.5000000e-03, 1.8123542e-01, 0.0
19, 5.0000000e-03, 1.8073542e-01, 0.0
20, 5.0000000e-03, 1.8123542e-01, 0.0
** ... 3647 like lines cut
*ELEMENT, TYPE=CAX4, ELSET=DISC
1, 1, 2, 3, 4
2, 2, 5, 6, 3
3, 5, 7, 8, 6
4, 7, 9, 10, 8
5, 9, 11, 12, 10
6, 11, 13, 14, 12
7, 13, 15, 16, 14
8, 15, 17, 18, 16
9, 17, 19, 20, 18
10, 19, 21, 22, 20
11, 21, 23, 24, 22
12, 23, 25, 26, 24
13, 25, 27, 28, 26
14, 27, 29, 30, 28
15, 29, 31, 32, 30
16, 31, 33, 34, 32
17, 33, 35, 36, 34
18, 35, 37, 38, 36
19, 37, 39, 40, 38
20, 39, 41, 42, 40
** ... 3479 like lines cut
*NSET, NSET=STUBREAR
1
*NSET, NSET=NALL, GENERATE
1, 3667
*MATERIAL, NAME=DISC
*ELASTIC
1.970000e+11, 0.3000
*DENSITY
8000.0000
*EXPANSION, ZERO=300.0
1.100000e-05
*SOLID SECTION, ELSET=DISC, MATERIAL=DISC
*INITIAL CONDITIONS, TYPE=TEMPERATURE
NALL, 300.0
*BOUNDARY
STUBREAR, 2, 2, 0.0
** ---- step 1: centrifugal at MCS
*STEP
*STATIC
*DLOAD
DISC, CENTRIF, 6.354946e+07, 0., 0., 0., 0., 1., 0.
582, P2, -1.533522e+08
618, P2, -1.533522e+08
656, P2, -1.533522e+08
695, P2, -1.533522e+08
736, P2, -1.533522e+08
778, P2, -1.533522e+08
821, P2, -1.533522e+08
894, P2, -1.533522e+08
967, P2, -1.533522e+08
1040, P2, -1.533522e+08
1113, P2, -1.533522e+08
1186, P2, -1.533522e+08
1259, P2, -1.533522e+08
1332, P2, -1.533522e+08
1405, P2, -1.533522e+08
1478, P2, -1.533522e+08
1551, P2, -1.533522e+08
1624, P2, -1.533522e+08
1697, P2, -1.533522e+08
1770, P2, -1.533522e+08
** ... 19 like lines cut
*TEMPERATURE
NALL, 300.0
*NODE FILE
U
*EL FILE
S
*EL PRINT, ELSET=DISC
S
*END STEP
** ---- step 2: MCS + start thermal gradient
*STEP
*STATIC
*DLOAD
DISC, CENTRIF, 6.354946e+07, 0., 0., 0., 0., 1., 0.
582, P2, -1.533522e+08
618, P2, -1.533522e+08
656, P2, -1.533522e+08
695, P2, -1.533522e+08
736, P2, -1.533522e+08
778, P2, -1.533522e+08
821, P2, -1.533522e+08
894, P2, -1.533522e+08
967, P2, -1.533522e+08
1040, P2, -1.533522e+08
1113, P2, -1.533522e+08
1186, P2, -1.533522e+08
1259, P2, -1.533522e+08
1332, P2, -1.533522e+08
1405, P2, -1.533522e+08
1478, P2, -1.533522e+08
1551, P2, -1.533522e+08
1624, P2, -1.533522e+08
1697, P2, -1.533522e+08
1770, P2, -1.533522e+08
** ... 19 like lines cut
*TEMPERATURE
1, 544.893
2, 544.955
3, 544.955
4, 544.893
5, 545.140
6, 545.140
7, 545.449
8, 545.449
9, 545.882
10, 545.882
11, 546.439
12, 546.439
13, 547.119
14, 547.119
15, 547.923
16, 547.923
17, 548.851
18, 548.851
19, 549.902
20, 549.902
** ... 3647 like lines cut
*NODE FILE
U
*EL FILE
S
*EL PRINT, ELSET=DISC
S
*END STEP
** ---- step 3: idle + start thermal gradient
*STEP
*STATIC
*DLOAD
DISC, CENTRIF, 1.441031e+07, 0., 0., 0., 0., 1., 0.
582, P2, -3.477375e+07
618, P2, -3.477375e+07
656, P2, -3.477375e+07
695, P2, -3.477375e+07
736, P2, -3.477375e+07
778, P2, -3.477375e+07
821, P2, -3.477375e+07
894, P2, -3.477375e+07
967, P2, -3.477375e+07
1040, P2, -3.477375e+07
1113, P2, -3.477375e+07
1186, P2, -3.477375e+07
1259, P2, -3.477375e+07
1332, P2, -3.477375e+07
1405, P2, -3.477375e+07
1478, P2, -3.477375e+07
1551, P2, -3.477375e+07
1624, P2, -3.477375e+07
1697, P2, -3.477375e+07
1770, P2, -3.477375e+07
** ... 19 like lines cut
*TEMPERATURE
1, 544.893
2, 544.955
3, 544.955
4, 544.893
5, 545.140
6, 545.140
7, 545.449
8, 545.449
9, 545.882
10, 545.882
11, 546.439
12, 546.439
13, 547.119
14, 547.119
15, 547.923
16, 547.923
17, 548.851
18, 548.851
19, 549.902
20, 549.902
** ... 3647 like lines cut
*NODE FILE
U
*EL FILE
S
*EL PRINT, ELSET=DISC
S
*END STEP
