% jetsuite2 impeller passage, generated 2026-09-17T07:41:22+00:00
SOLVER= EULER
KIND_TURB_MODEL= NONE
MATH_PROBLEM= DIRECT
RESTART_SOL= NO
SYSTEM_MEASUREMENTS= SI
% rotating frame about x
GRID_MOVEMENT= NONE
MOTION_ORIGIN= 0.0 0.0 0.0
ROTATION_RATE= -7592.1822 0.0 0.0
MACH_NUMBER= 0.05
AOA= 0.0
FREESTREAM_PRESSURE= 99298.5
FREESTREAM_TEMPERATURE= 288.15
FREESTREAM_TURBULENCEINTENSITY= 0.05
FREESTREAM_TURB2LAMVISCRATIO= 10.0
REF_ORIGIN_MOMENT_X= 0.0
REF_ORIGIN_MOMENT_Y= 0.0
REF_ORIGIN_MOMENT_Z= 0.0
REF_LENGTH= 0.13140
REF_AREA= 1.0
REF_DIMENSIONALIZATION= DIMENSIONAL
INIT_OPTION= TD_CONDITIONS
FREESTREAM_OPTION= TEMPERATURE_FS
REYNOLDS_NUMBER= 899987
REYNOLDS_LENGTH= 0.13140
FLUID_MODEL= IDEAL_GAS
GAMMA_VALUE= 1.4
GAS_CONSTANT= 287.058
VISCOSITY_MODEL= SUTHERLAND
MU_REF= 1.716E-5
MU_T_REF= 273.15
SUTHERLAND_CONSTANT= 110.4
CONDUCTIVITY_MODEL= CONSTANT_PRANDTL
PRANDTL_LAM= 0.72
PRANDTL_TURB= 0.90
% boundaries
MARKER_EULER= ( HUB, SHROUD )
MARKER_INLET= ( INLET, 288.15, 99298.5, 1.0, 0.0, 0.0 )
MARKER_OUTLET= ( OUTLET, 89000.0 )
RAMP_OUTLET= NO
RAMP_OUTLET_COEFF= ( 89000.0, 10, 600 )
MARKER_PERIODIC= ( PER_A, PER_B, 0.0, 0.0, 0.0, 45.000000, 0.0, 0.0, 0.0, 0.0, 0.0 )
MARKER_MONITORING= ( HUB )
MARKER_ANALYZE= ( INLET, OUTLET )
MARKER_ANALYZE_AVERAGE= MASSFLUX

% numerics
NUM_METHOD_GRAD= WEIGHTED_LEAST_SQUARES
CFL_NUMBER= 2.0
CFL_ADAPT= NO
CFL_ADAPT_PARAM= ( 0.5, 1.2, 0.5, 10.0 )
ITER= 300
LINEAR_SOLVER= FGMRES
LINEAR_SOLVER_PREC= ILU
LINEAR_SOLVER_ERROR= 1E-4
LINEAR_SOLVER_ITER= 25
MGLEVEL= 0
CONV_NUM_METHOD_FLOW= AUSMPLUSUP2
MUSCL_FLOW= YES
SLOPE_LIMITER_FLOW= VENKATAKRISHNAN
VENKAT_LIMITER_COEFF= 0.05
TIME_DISCRE_FLOW= EULER_IMPLICIT
CONV_NUM_METHOD_TURB= SCALAR_UPWIND
MUSCL_TURB= NO
TIME_DISCRE_TURB= EULER_IMPLICIT
CONV_FIELD= RMS_DENSITY
CONV_RESIDUAL_MINVAL= -8
CONV_STARTITER= 50
% i/o
MESH_FILENAME= ns/passage.su2
MESH_FORMAT= SU2
SOLUTION_FILENAME= restart_flow.dat
RESTART_FILENAME= restart_nsmach.dat
OUTPUT_FILES= ( RESTART )
VOLUME_FILENAME= flow
SURFACE_FILENAME= surface_flow
CONV_FILENAME= history_nsmach
HISTORY_OUTPUT= ( ITER, RMS_RES, FLOW_COEFF, SURFACE_MASSFLOW, SURFACE_TOTAL_PRESSURE, SURFACE_TOTAL_TEMPERATURE, SURFACE_STATIC_PRESSURE, AVG_MASSFLOW )
OUTPUT_WRT_FREQ= 100
SCREEN_OUTPUT= ( INNER_ITER, RMS_DENSITY, SURFACE_MASSFLOW, SURFACE_TOTAL_TEMPERATURE, SURFACE_STATIC_PRESSURE )
SCREEN_WRT_FREQ_INNER= 100
