SOLVER= EULER
MATH_PROBLEM= DIRECT
RESTART_SOL= YES
SYSTEM_MEASUREMENTS= SI
GRID_MOVEMENT= ROTATING_FRAME
MOTION_ORIGIN= 0.0 0.0 0.0
ROTATION_RATE= -7592.1822 0.0 0.0
MACH_NUMBER= 0.3
AOA= 0.0
FREESTREAM_PRESSURE= 99298.5
FREESTREAM_TEMPERATURE= 288.15
REF_DIMENSIONALIZATION= DIMENSIONAL
INIT_OPTION= TD_CONDITIONS
FREESTREAM_OPTION= TEMPERATURE_FS
FLUID_MODEL= IDEAL_GAS
GAMMA_VALUE= 1.4
GAS_CONSTANT= 287.058
MARKER_EULER= ( WALL_Y0, WALL_Y1, WALL_Z0, WALL_Z1 )
MARKER_INLET= ( INLET, 288.15, 99298.5, 1.0, 0.0, 0.0 )
MARKER_OUTLET= ( OUTLET, 89000.0 )
MARKER_MONITORING= ( WALL_Y0 )
MARKER_ANALYZE= ( INLET, OUTLET )
MARKER_ANALYZE_AVERAGE= MASSFLUX
NUM_METHOD_GRAD= WEIGHTED_LEAST_SQUARES
CFL_NUMBER= 2.0
CFL_ADAPT= NO
ITER= 3000
LINEAR_SOLVER= FGMRES
LINEAR_SOLVER_PREC= ILU
LINEAR_SOLVER_ERROR= 1E-4
LINEAR_SOLVER_ITER= 25
MGLEVEL= 0
CONV_NUM_METHOD_FLOW= ROE
MUSCL_FLOW= YES
SLOPE_LIMITER_FLOW= VENKATAKRISHNAN
VENKAT_LIMITER_COEFF= 0.05
TIME_DISCRE_FLOW= EULER_IMPLICIT
CONV_FIELD= RMS_DENSITY
CONV_RESIDUAL_MINVAL= -10
MESH_FILENAME= duct.su2
MESH_FORMAT= SU2
OUTPUT_FILES= ( CSV )
RESTART_FILENAME= restart_duct7592b.csv
VOLUME_FILENAME= flow
CONV_FILENAME= history7592b
OUTPUT_WRT_FREQ= 3000
SCREEN_OUTPUT= ( INNER_ITER, RMS_DENSITY, SURFACE_MASSFLOW, SURFACE_TOTAL_TEMPERATURE )
SCREEN_WRT_FREQ_INNER= 500
SOLUTION_FILENAME= restart_duct7592.csv
READ_BINARY_RESTART= NO
